MODEL 1
REMARK VINA RESULT:      -6.1      0.000      0.000
REMARK  14 active torsions:
REMARK  status: ('A' for Active; 'I' for Inactive)
REMARK    1  A    between atoms: C1_1505  and  O5_1509 
REMARK    2  A    between atoms: O5_1509  and  C6_1510 
REMARK       I    between atoms: C6_1510  and  N8_1512 
REMARK    3  A    between atoms: N8_1512  and  C9_1513 
REMARK    4  A    between atoms: C9_1513  and  C10_1514 
REMARK    5  A    between atoms: C9_1513  and  C17_1521 
REMARK    6  A    between atoms: C10_1514  and  C11_1515 
REMARK    7  A    between atoms: C17_1521  and  C19_1523 
REMARK    8  A    between atoms: C19_1523  and  C20_1524 
REMARK    9  A    between atoms: C20_1524  and  C21_1525 
REMARK   10  A    between atoms: C20_1524  and  C28_1532 
REMARK   11  A    between atoms: C21_1525  and  C22_1526 
REMARK       I    between atoms: C28_1532  and  N30_1534 
REMARK   12  A    between atoms: N30_1534  and  C31_1535 
REMARK   13  A    between atoms: C31_1535  and  C32_1536 
REMARK   14  A    between atoms: C31_1535  and  C35_1538 
ROOT
HETATM    1  C1  IM1 A 400      -8.490  16.258  33.792  0.93 19.60     0.103 C 
HETATM    2  C2  IM1 A 400      -8.478  16.489  35.295  0.93 19.60     0.030 C 
HETATM    3  C3  IM1 A 400      -9.806  15.553  33.494  0.93 19.60     0.030 C 
HETATM    4  C4  IM1 A 400      -8.498  17.612  33.088  0.93 19.60     0.030 C 
ENDROOT
BRANCH   1   5
HETATM    5  O5  IM1 A 400      -7.423  15.380  33.500  0.93 19.60    -0.289 OA
BRANCH   5   6
HETATM    6  C6  IM1 A 400      -6.921  14.920  32.271  0.93 19.60     0.383 C 
HETATM    7  N8  IM1 A 400      -7.305  13.781  31.689  0.93 19.60    -0.211 NA
HETATM    8  O7  IM1 A 400      -6.079  15.629  31.716  0.93 19.60    -0.236 OA
BRANCH   7   9
HETATM    9  C9  IM1 A 400      -6.736  13.336  30.407  0.93 19.60     0.143 C 
BRANCH   9  10
HETATM   10  C10 IM1 A 400      -6.216  11.908  30.613  0.93 19.60     0.053 C 
BRANCH  10  11
HETATM   11  C11 IM1 A 400      -4.699  11.821  30.510  0.93 19.60    -0.020 A 
HETATM   12  C16 IM1 A 400      -3.924  12.984  30.378  0.93 19.60    -0.004 A 
HETATM   13  C15 IM1 A 400      -2.539  12.890  30.293  0.93 19.60    -0.000 A 
HETATM   14  C14 IM1 A 400      -1.928  11.638  30.334  0.93 19.60    -0.000 A 
HETATM   15  C13 IM1 A 400      -2.693  10.480  30.471  0.93 19.60    -0.000 A 
HETATM   16  C12 IM1 A 400      -4.080  10.568  30.556  0.93 19.60    -0.004 A 
ENDBRANCH  10  11
ENDBRANCH   9  10
BRANCH   9  17
HETATM   17  C17 IM1 A 400      -7.549  13.415  29.055  0.93 19.60     0.175 C 
HETATM   18  O18 IM1 A 400      -8.918  13.624  29.428  0.93 19.60    -0.221 OA
BRANCH  17  19
HETATM   19  C19 IM1 A 400      -7.115  14.507  28.039  0.93 19.60     0.045 C 
BRANCH  19  20
HETATM   20  C20 IM1 A 400      -5.642  14.923  27.986  0.93 19.60     0.088 C 
BRANCH  20  21
HETATM   21  C21 IM1 A 400      -5.080  14.417  26.635  0.93 19.60     0.036 C 
BRANCH  21  22
HETATM   22  C22 IM1 A 400      -4.293  13.104  26.703  0.93 19.60    -0.022 A 
HETATM   23  C23 IM1 A 400      -4.971  11.887  26.810  0.93 19.60    -0.004 A 
HETATM   24  C24 IM1 A 400      -4.257  10.693  26.844  0.93 19.60    -0.000 A 
HETATM   25  C25 IM1 A 400      -2.868  10.716  26.778  0.93 19.60    -0.000 A 
HETATM   26  C26 IM1 A 400      -2.186  11.923  26.669  0.93 19.60    -0.000 A 
HETATM   27  C27 IM1 A 400      -2.896  13.116  26.637  0.93 19.60    -0.004 A 
ENDBRANCH  21  22
ENDBRANCH  20  21
BRANCH  20  28
HETATM   28  C28 IM1 A 400      -5.431  16.432  28.155  0.93 19.60     0.252 C 
HETATM   29  N30 IM1 A 400      -6.034  17.221  27.274  0.93 19.60    -0.232 NA
HETATM   30  O29 IM1 A 400      -4.758  16.888  29.085  0.93 19.60    -0.271 OA
BRANCH  29  31
HETATM   31  C31 IM1 A 400      -5.965  18.687  27.283  0.93 19.60     0.164 C 
BRANCH  31  32
HETATM   32  C32 IM1 A 400      -4.836  19.251  26.371  0.93 19.60     0.032 C 
HETATM   33  C34 IM1 A 400      -4.528  18.274  25.248  0.93 19.60     0.003 C 
ENDBRANCH  31  32
BRANCH  31  34
HETATM   34  C35 IM1 A 400      -7.313  19.149  26.724  0.93 19.60     0.162 A 
HETATM   35  N36 IM1 A 400      -8.397  18.412  26.888  0.93 19.60    -0.226 NA
HETATM   36  C37 IM1 A 400      -9.417  19.148  26.321  0.93 19.60     0.121 A 
HETATM   37  C38 IM1 A 400      -8.869  20.329  25.830  0.93 19.60     0.121 A 
HETATM   38  N39 IM1 A 400      -7.523  20.294  26.110  0.93 19.60    -0.226 NA
ENDBRANCH  31  34
ENDBRANCH  29  31
ENDBRANCH  20  28
ENDBRANCH  19  20
ENDBRANCH  17  19
ENDBRANCH   9  17
ENDBRANCH   7   9
ENDBRANCH   5   6
ENDBRANCH   1   5
TORSDOF 14
ENDMDL
MODEL 2
REMARK VINA RESULT:      -5.5      1.993      3.295
REMARK  14 active torsions:
REMARK  status: ('A' for Active; 'I' for Inactive)
REMARK    1  A    between atoms: C1_1505  and  O5_1509 
REMARK    2  A    between atoms: O5_1509  and  C6_1510 
REMARK       I    between atoms: C6_1510  and  N8_1512 
REMARK    3  A    between atoms: N8_1512  and  C9_1513 
REMARK    4  A    between atoms: C9_1513  and  C10_1514 
REMARK    5  A    between atoms: C9_1513  and  C17_1521 
REMARK    6  A    between atoms: C10_1514  and  C11_1515 
REMARK    7  A    between atoms: C17_1521  and  C19_1523 
REMARK    8  A    between atoms: C19_1523  and  C20_1524 
REMARK    9  A    between atoms: C20_1524  and  C21_1525 
REMARK   10  A    between atoms: C20_1524  and  C28_1532 
REMARK   11  A    between atoms: C21_1525  and  C22_1526 
REMARK       I    between atoms: C28_1532  and  N30_1534 
REMARK   12  A    between atoms: N30_1534  and  C31_1535 
REMARK   13  A    between atoms: C31_1535  and  C32_1536 
REMARK   14  A    between atoms: C31_1535  and  C35_1538 
ROOT
HETATM    1  C1  IM1 A 400      -8.858  16.391  34.366  0.93 19.60     0.103 C 
HETATM    2  C2  IM1 A 400     -10.356  16.507  34.603  0.93 19.60     0.030 C 
HETATM    3  C3  IM1 A 400      -8.486  17.581  33.492  0.93 19.60     0.030 C 
HETATM    4  C4  IM1 A 400      -8.138  16.530  35.704  0.93 19.60     0.030 C 
ENDROOT
BRANCH   1   5
HETATM    5  O5  IM1 A 400      -8.646  15.202  33.634  0.93 19.60    -0.289 OA
BRANCH   5   6
HETATM    6  C6  IM1 A 400      -7.897  14.959  32.470  0.93 19.60     0.383 C 
HETATM    7  N8  IM1 A 400      -6.566  14.862  32.449  0.93 19.60    -0.211 NA
HETATM    8  O7  IM1 A 400      -8.531  14.830  31.421  0.93 19.60    -0.236 OA
BRANCH   7   9
HETATM    9  C9  IM1 A 400      -5.827  14.622  31.198  0.93 19.60     0.143 C 
BRANCH   9  10
HETATM   10  C10 IM1 A 400      -6.063  13.159  30.807  0.93 19.60     0.053 C 
BRANCH  10  11
HETATM   11  C11 IM1 A 400      -4.765  12.372  30.686  0.93 19.60    -0.020 A 
HETATM   12  C16 IM1 A 400      -3.544  13.036  30.487  0.93 19.60    -0.004 A 
HETATM   13  C15 IM1 A 400      -2.364  12.306  30.386  0.93 19.60    -0.000 A 
HETATM   14  C14 IM1 A 400      -2.402  10.916  30.478  0.93 19.60    -0.000 A 
HETATM   15  C13 IM1 A 400      -3.612  10.252  30.682  0.93 19.60    -0.000 A 
HETATM   16  C12 IM1 A 400      -4.796  10.978  30.783  0.93 19.60    -0.004 A 
ENDBRANCH  10  11
ENDBRANCH   9  10
BRANCH   9  17
HETATM   17  C17 IM1 A 400      -6.003  15.546  29.929  0.93 19.60     0.175 C 
HETATM   18  O18 IM1 A 400      -4.727  16.161  29.707  0.93 19.60    -0.221 OA
BRANCH  17  19
HETATM   19  C19 IM1 A 400      -6.481  14.857  28.621  0.93 19.60     0.045 C 
BRANCH  19  20
HETATM   20  C20 IM1 A 400      -5.460  14.592  27.510  0.93 19.60     0.088 C 
BRANCH  20  21
HETATM   21  C21 IM1 A 400      -5.633  13.113  27.085  0.93 19.60     0.036 C 
BRANCH  21  22
HETATM   22  C22 IM1 A 400      -4.334  12.308  26.972  0.93 19.60    -0.022 A 
HETATM   23  C23 IM1 A 400      -3.113  12.970  26.819  0.93 19.60    -0.004 A 
HETATM   24  C24 IM1 A 400      -1.931  12.239  26.746  0.93 19.60    -0.000 A 
HETATM   25  C25 IM1 A 400      -1.970  10.850  26.817  0.93 19.60    -0.000 A 
HETATM   26  C26 IM1 A 400      -3.181  10.185  26.970  0.93 19.60    -0.000 A 
HETATM   27  C27 IM1 A 400      -4.363  10.911  27.042  0.93 19.60    -0.004 A 
ENDBRANCH  21  22
ENDBRANCH  20  21
BRANCH  20  28
HETATM   28  C28 IM1 A 400      -5.602  15.543  26.316  0.93 19.60     0.252 C 
HETATM   29  N30 IM1 A 400      -4.534  16.266  26.000  0.93 19.60    -0.232 NA
HETATM   30  O29 IM1 A 400      -6.649  15.608  25.665  0.93 19.60    -0.271 OA
BRANCH  29  31
HETATM   31  C31 IM1 A 400      -4.471  17.216  24.882  0.93 19.60     0.164 C 
BRANCH  31  32
HETATM   32  C32 IM1 A 400      -3.955  18.623  25.304  0.93 19.60     0.032 C 
HETATM   33  C34 IM1 A 400      -4.756  19.146  26.486  0.93 19.60     0.003 C 
ENDBRANCH  31  32
BRANCH  31  34
HETATM   34  C35 IM1 A 400      -3.465  16.606  23.903  0.93 19.60     0.162 A 
HETATM   35  N36 IM1 A 400      -3.856  16.188  22.711  0.93 19.60    -0.226 NA
HETATM   36  C37 IM1 A 400      -2.701  15.763  22.088  0.93 19.60     0.121 A 
HETATM   37  C38 IM1 A 400      -1.643  15.954  22.971  0.93 19.60     0.121 A 
HETATM   38  N39 IM1 A 400      -2.171  16.498  24.118  0.93 19.60    -0.226 NA
ENDBRANCH  31  34
ENDBRANCH  29  31
ENDBRANCH  20  28
ENDBRANCH  19  20
ENDBRANCH  17  19
ENDBRANCH   9  17
ENDBRANCH   7   9
ENDBRANCH   5   6
ENDBRANCH   1   5
TORSDOF 14
ENDMDL
MODEL 3
REMARK VINA RESULT:      -5.4      1.541      2.465
REMARK  14 active torsions:
REMARK  status: ('A' for Active; 'I' for Inactive)
REMARK    1  A    between atoms: C1_1505  and  O5_1509 
REMARK    2  A    between atoms: O5_1509  and  C6_1510 
REMARK       I    between atoms: C6_1510  and  N8_1512 
REMARK    3  A    between atoms: N8_1512  and  C9_1513 
REMARK    4  A    between atoms: C9_1513  and  C10_1514 
REMARK    5  A    between atoms: C9_1513  and  C17_1521 
REMARK    6  A    between atoms: C10_1514  and  C11_1515 
REMARK    7  A    between atoms: C17_1521  and  C19_1523 
REMARK    8  A    between atoms: C19_1523  and  C20_1524 
REMARK    9  A    between atoms: C20_1524  and  C21_1525 
REMARK   10  A    between atoms: C20_1524  and  C28_1532 
REMARK   11  A    between atoms: C21_1525  and  C22_1526 
REMARK       I    between atoms: C28_1532  and  N30_1534 
REMARK   12  A    between atoms: N30_1534  and  C31_1535 
REMARK   13  A    between atoms: C31_1535  and  C32_1536 
REMARK   14  A    between atoms: C31_1535  and  C35_1538 
ROOT
HETATM    1  C1  IM1 A 400      -8.879  16.359  34.392  0.93 19.60     0.103 C 
HETATM    2  C2  IM1 A 400     -10.373  16.516  34.631  0.93 19.60     0.030 C 
HETATM    3  C3  IM1 A 400      -8.485  17.514  33.481  0.93 19.60     0.030 C 
HETATM    4  C4  IM1 A 400      -8.150  16.525  35.723  0.93 19.60     0.030 C 
ENDROOT
BRANCH   1   5
HETATM    5  O5  IM1 A 400      -8.696  15.144  33.698  0.93 19.60    -0.289 OA
BRANCH   5   6
HETATM    6  C6  IM1 A 400      -8.015  14.862  32.502  0.93 19.60     0.383 C 
HETATM    7  N8  IM1 A 400      -6.686  14.776  32.404  0.93 19.60    -0.211 NA
HETATM    8  O7  IM1 A 400      -8.708  14.685  31.498  0.93 19.60    -0.236 OA
BRANCH   7   9
HETATM    9  C9  IM1 A 400      -6.021  14.493  31.122  0.93 19.60     0.143 C 
BRANCH   9  10
HETATM   10  C10 IM1 A 400      -6.158  12.988  30.863  0.93 19.60     0.053 C 
BRANCH  10  11
HETATM   11  C11 IM1 A 400      -4.808  12.296  30.722  0.93 19.60    -0.020 A 
HETATM   12  C16 IM1 A 400      -3.645  13.044  30.480  0.93 19.60    -0.004 A 
HETATM   13  C15 IM1 A 400      -2.418  12.400  30.361  0.93 19.60    -0.000 A 
HETATM   14  C14 IM1 A 400      -2.351  11.013  30.479  0.93 19.60    -0.000 A 
HETATM   15  C13 IM1 A 400      -3.503  10.267  30.726  0.93 19.60    -0.000 A 
HETATM   16  C12 IM1 A 400      -4.735  10.906  30.845  0.93 19.60    -0.004 A 
ENDBRANCH  10  11
ENDBRANCH   9  10
BRANCH   9  17
HETATM   17  C17 IM1 A 400      -6.364  15.292  29.804  0.93 19.60     0.175 C 
HETATM   18  O18 IM1 A 400      -5.167  15.995  29.443  0.93 19.60    -0.221 OA
BRANCH  17  19
HETATM   19  C19 IM1 A 400      -6.862  14.459  28.590  0.93 19.60     0.045 C 
BRANCH  19  20
HETATM   20  C20 IM1 A 400      -5.949  14.316  27.368  0.93 19.60     0.088 C 
BRANCH  20  21
HETATM   21  C21 IM1 A 400      -5.861  12.803  27.048  0.93 19.60     0.036 C 
BRANCH  21  22
HETATM   22  C22 IM1 A 400      -4.441  12.236  26.952  0.93 19.60    -0.022 A 
HETATM   23  C23 IM1 A 400      -3.354  13.098  26.784  0.93 19.60    -0.004 A 
HETATM   24  C24 IM1 A 400      -2.062  12.584  26.725  0.93 19.60    -0.000 A 
HETATM   25  C25 IM1 A 400      -1.858  11.212  26.828  0.93 19.60    -0.000 A 
HETATM   26  C26 IM1 A 400      -2.934  10.348  26.998  0.93 19.60    -0.000 A 
HETATM   27  C27 IM1 A 400      -4.225  10.858  27.054  0.93 19.60    -0.004 A 
ENDBRANCH  21  22
ENDBRANCH  20  21
BRANCH  20  28
HETATM   28  C28 IM1 A 400      -6.427  15.123  26.155  0.93 19.60     0.252 C 
HETATM   29  N30 IM1 A 400      -7.017  16.285  26.407  0.93 19.60    -0.232 NA
HETATM   30  O29 IM1 A 400      -6.243  14.721  25.002  0.93 19.60    -0.271 OA
BRANCH  29  31
HETATM   31  C31 IM1 A 400      -7.523  17.203  25.379  0.93 19.60     0.164 C 
BRANCH  31  32
HETATM   32  C32 IM1 A 400      -8.983  17.675  25.647  0.93 19.60     0.032 C 
HETATM   33  C34 IM1 A 400      -9.875  16.482  25.952  0.93 19.60     0.003 C 
ENDBRANCH  31  32
BRANCH  31  34
HETATM   34  C35 IM1 A 400      -6.600  18.423  25.450  0.93 19.60     0.162 A 
HETATM   35  N36 IM1 A 400      -6.530  19.149  26.552  0.93 19.60    -0.226 NA
HETATM   36  C37 IM1 A 400      -5.577  20.110  26.284  0.93 19.60     0.121 A 
HETATM   37  C38 IM1 A 400      -5.111  19.900  24.988  0.93 19.60     0.121 A 
HETATM   38  N39 IM1 A 400      -5.787  18.811  24.491  0.93 19.60    -0.226 NA
ENDBRANCH  31  34
ENDBRANCH  29  31
ENDBRANCH  20  28
ENDBRANCH  19  20
ENDBRANCH  17  19
ENDBRANCH   9  17
ENDBRANCH   7   9
ENDBRANCH   5   6
ENDBRANCH   1   5
TORSDOF 14
ENDMDL
MODEL 4
REMARK VINA RESULT:      -5.4      1.497      2.151
REMARK  14 active torsions:
REMARK  status: ('A' for Active; 'I' for Inactive)
REMARK    1  A    between atoms: C1_1505  and  O5_1509 
REMARK    2  A    between atoms: O5_1509  and  C6_1510 
REMARK       I    between atoms: C6_1510  and  N8_1512 
REMARK    3  A    between atoms: N8_1512  and  C9_1513 
REMARK    4  A    between atoms: C9_1513  and  C10_1514 
REMARK    5  A    between atoms: C9_1513  and  C17_1521 
REMARK    6  A    between atoms: C10_1514  and  C11_1515 
REMARK    7  A    between atoms: C17_1521  and  C19_1523 
REMARK    8  A    between atoms: C19_1523  and  C20_1524 
REMARK    9  A    between atoms: C20_1524  and  C21_1525 
REMARK   10  A    between atoms: C20_1524  and  C28_1532 
REMARK   11  A    between atoms: C21_1525  and  C22_1526 
REMARK       I    between atoms: C28_1532  and  N30_1534 
REMARK   12  A    between atoms: N30_1534  and  C31_1535 
REMARK   13  A    between atoms: C31_1535  and  C32_1536 
REMARK   14  A    between atoms: C31_1535  and  C35_1538 
ROOT
HETATM    1  C1  IM1 A 400      -8.463  16.322  32.934  0.93 19.60     0.103 C 
HETATM    2  C2  IM1 A 400      -8.775  16.880  31.554  0.93 19.60     0.030 C 
HETATM    3  C3  IM1 A 400      -8.485  17.518  33.876  0.93 19.60     0.030 C 
HETATM    4  C4  IM1 A 400      -9.582  15.367  33.341  0.93 19.60     0.030 C 
ENDROOT
BRANCH   1   5
HETATM    5  O5  IM1 A 400      -7.151  15.802  32.884  0.93 19.60    -0.289 OA
BRANCH   5   6
HETATM    6  C6  IM1 A 400      -6.511  15.016  31.912  0.93 19.60     0.383 C 
HETATM    7  N8  IM1 A 400      -7.068  13.950  31.331  0.93 19.60    -0.211 NA
HETATM    8  O7  IM1 A 400      -5.369  15.351  31.592  0.93 19.60    -0.236 OA
BRANCH   7   9
HETATM    9  C9  IM1 A 400      -6.347  13.149  30.329  0.93 19.60     0.143 C 
BRANCH   9  10
HETATM   10  C10 IM1 A 400      -5.852  11.880  31.033  0.93 19.60     0.053 C 
BRANCH  10  11
HETATM   11  C11 IM1 A 400      -4.377  11.608  30.771  0.93 19.60    -0.020 A 
HETATM   12  C16 IM1 A 400      -3.496  12.662  30.482  0.93 19.60    -0.004 A 
HETATM   13  C15 IM1 A 400      -2.150  12.400  30.253  0.93 19.60    -0.000 A 
HETATM   14  C14 IM1 A 400      -1.682  11.088  30.307  0.93 19.60    -0.000 A 
HETATM   15  C13 IM1 A 400      -2.552  10.038  30.600  0.93 19.60    -0.000 A 
HETATM   16  C12 IM1 A 400      -3.901  10.294  30.830  0.93 19.60    -0.004 A 
ENDBRANCH  10  11
ENDBRANCH   9  10
BRANCH   9  17
HETATM   17  C17 IM1 A 400      -6.992  12.767  28.939  0.93 19.60     0.175 C 
HETATM   18  O18 IM1 A 400      -8.337  13.262  28.976  0.93 19.60    -0.221 OA
BRANCH  17  19
HETATM   19  C19 IM1 A 400      -6.279  13.299  27.665  0.93 19.60     0.045 C 
BRANCH  19  20
HETATM   20  C20 IM1 A 400      -5.141  14.313  27.825  0.93 19.60     0.088 C 
BRANCH  20  21
HETATM   21  C21 IM1 A 400      -4.117  14.019  26.701  0.93 19.60     0.036 C 
BRANCH  21  22
HETATM   22  C22 IM1 A 400      -3.465  12.634  26.755  0.93 19.60    -0.022 A 
HETATM   23  C23 IM1 A 400      -2.084  12.504  26.590  0.93 19.60    -0.004 A 
HETATM   24  C24 IM1 A 400      -1.488  11.248  26.668  0.93 19.60    -0.000 A 
HETATM   25  C25 IM1 A 400      -2.273  10.124  26.902  0.93 19.60    -0.000 A 
HETATM   26  C26 IM1 A 400      -3.648  10.245  27.069  0.93 19.60    -0.000 A 
HETATM   27  C27 IM1 A 400      -4.245  11.497  26.990  0.93 19.60    -0.004 A 
ENDBRANCH  21  22
ENDBRANCH  20  21
BRANCH  20  28
HETATM   28  C28 IM1 A 400      -5.617  15.770  27.788  0.93 19.60     0.252 C 
HETATM   29  N30 IM1 A 400      -5.212  16.503  26.759  0.93 19.60    -0.232 NA
HETATM   30  O29 IM1 A 400      -6.363  16.225  28.660  0.93 19.60    -0.271 OA
BRANCH  29  31
HETATM   31  C31 IM1 A 400      -5.576  17.909  26.542  0.93 19.60     0.164 C 
BRANCH  31  32
HETATM   32  C32 IM1 A 400      -4.730  18.898  27.396  0.93 19.60     0.032 C 
HETATM   33  C34 IM1 A 400      -5.540  20.145  27.714  0.93 19.60     0.003 C 
ENDBRANCH  31  32
BRANCH  31  34
HETATM   34  C35 IM1 A 400      -5.278  18.171  25.063  0.93 19.60     0.162 A 
HETATM   35  N36 IM1 A 400      -6.208  17.976  24.145  0.93 19.60    -0.226 NA
HETATM   36  C37 IM1 A 400      -5.621  18.360  22.957  0.93 19.60     0.121 A 
HETATM   37  C38 IM1 A 400      -4.323  18.779  23.238  0.93 19.60     0.121 A 
HETATM   38  N39 IM1 A 400      -4.143  18.646  24.595  0.93 19.60    -0.226 NA
ENDBRANCH  31  34
ENDBRANCH  29  31
ENDBRANCH  20  28
ENDBRANCH  19  20
ENDBRANCH  17  19
ENDBRANCH   9  17
ENDBRANCH   7   9
ENDBRANCH   5   6
ENDBRANCH   1   5
TORSDOF 14
ENDMDL
MODEL 5
REMARK VINA RESULT:      -5.3      2.980      5.563
REMARK  14 active torsions:
REMARK  status: ('A' for Active; 'I' for Inactive)
REMARK    1  A    between atoms: C1_1505  and  O5_1509 
REMARK    2  A    between atoms: O5_1509  and  C6_1510 
REMARK       I    between atoms: C6_1510  and  N8_1512 
REMARK    3  A    between atoms: N8_1512  and  C9_1513 
REMARK    4  A    between atoms: C9_1513  and  C10_1514 
REMARK    5  A    between atoms: C9_1513  and  C17_1521 
REMARK    6  A    between atoms: C10_1514  and  C11_1515 
REMARK    7  A    between atoms: C17_1521  and  C19_1523 
REMARK    8  A    between atoms: C19_1523  and  C20_1524 
REMARK    9  A    between atoms: C20_1524  and  C21_1525 
REMARK   10  A    between atoms: C20_1524  and  C28_1532 
REMARK   11  A    between atoms: C21_1525  and  C22_1526 
REMARK       I    between atoms: C28_1532  and  N30_1534 
REMARK   12  A    between atoms: N30_1534  and  C31_1535 
REMARK   13  A    between atoms: C31_1535  and  C32_1536 
REMARK   14  A    between atoms: C31_1535  and  C35_1538 
ROOT
HETATM    1  C1  IM1 A 400     -13.382  15.249  26.458  0.93 19.60     0.103 C 
HETATM    2  C2  IM1 A 400     -14.514  16.082  25.875  0.93 19.60     0.030 C 
HETATM    3  C3  IM1 A 400     -14.040  13.996  27.018  0.93 19.60     0.030 C 
HETATM    4  C4  IM1 A 400     -12.444  14.837  25.327  0.93 19.60     0.030 C 
ENDROOT
BRANCH   1   5
HETATM    5  O5  IM1 A 400     -12.828  15.991  27.524  0.93 19.60    -0.289 OA
BRANCH   5   6
HETATM    6  C6  IM1 A 400     -11.493  16.170  27.923  0.93 19.60     0.383 C 
HETATM    7  N8  IM1 A 400     -10.736  15.201  28.443  0.93 19.60    -0.211 NA
HETATM    8  O7  IM1 A 400     -11.017  17.297  27.773  0.93 19.60    -0.236 OA
BRANCH   7   9
HETATM    9  C9  IM1 A 400      -9.346  15.446  28.861  0.93 19.60     0.143 C 
BRANCH   9  10
HETATM   10  C10 IM1 A 400      -9.074  14.551  30.076  0.93 19.60     0.053 C 
BRANCH  10  11
HETATM   11  C11 IM1 A 400      -8.902  15.351  31.360  0.93 19.60    -0.020 A 
HETATM   12  C16 IM1 A 400      -8.683  16.737  31.315  0.93 19.60    -0.004 A 
HETATM   13  C15 IM1 A 400      -8.536  17.456  32.496  0.93 19.60    -0.000 A 
HETATM   14  C14 IM1 A 400      -8.601  16.794  33.721  0.93 19.60    -0.000 A 
HETATM   15  C13 IM1 A 400      -8.825  15.419  33.771  0.93 19.60    -0.000 A 
HETATM   16  C12 IM1 A 400      -8.972  14.693  32.592  0.93 19.60    -0.004 A 
ENDBRANCH  10  11
ENDBRANCH   9  10
BRANCH   9  17
HETATM   17  C17 IM1 A 400      -8.136  15.349  27.850  0.93 19.60     0.175 C 
HETATM   18  O18 IM1 A 400      -8.681  14.835  26.627  0.93 19.60    -0.221 OA
BRANCH  17  19
HETATM   19  C19 IM1 A 400      -7.359  16.663  27.559  0.93 19.60     0.045 C 
BRANCH  19  20
HETATM   20  C20 IM1 A 400      -6.099  16.972  28.374  0.93 19.60     0.088 C 
BRANCH  20  21
HETATM   21  C21 IM1 A 400      -5.333  15.636  28.540  0.93 19.60     0.036 C 
BRANCH  21  22
HETATM   22  C22 IM1 A 400      -5.367  15.032  29.948  0.93 19.60    -0.022 A 
HETATM   23  C23 IM1 A 400      -5.188  15.853  31.064  0.93 19.60    -0.004 A 
HETATM   24  C24 IM1 A 400      -5.248  15.309  32.344  0.93 19.60    -0.000 A 
HETATM   25  C25 IM1 A 400      -5.479  13.946  32.507  0.93 19.60    -0.000 A 
HETATM   26  C26 IM1 A 400      -5.661  13.124  31.400  0.93 19.60    -0.000 A 
HETATM   27  C27 IM1 A 400      -5.600  13.664  30.122  0.93 19.60    -0.004 A 
ENDBRANCH  21  22
ENDBRANCH  20  21
BRANCH  20  28
HETATM   28  C28 IM1 A 400      -5.216  18.054  27.741  0.93 19.60     0.252 C 
HETATM   29  N30 IM1 A 400      -5.599  18.519  26.558  0.93 19.60    -0.232 NA
HETATM   30  O29 IM1 A 400      -4.216  18.489  28.320  0.93 19.60    -0.271 OA
BRANCH  29  31
HETATM   31  C31 IM1 A 400      -4.896  19.565  25.806  0.93 19.60     0.164 C 
BRANCH  31  32
HETATM   32  C32 IM1 A 400      -3.985  18.998  24.677  0.93 19.60     0.032 C 
HETATM   33  C34 IM1 A 400      -4.767  18.027  23.807  0.93 19.60     0.003 C 
ENDBRANCH  31  32
BRANCH  31  34
HETATM   34  C35 IM1 A 400      -6.004  20.399  25.159  0.93 19.60     0.162 A 
HETATM   35  N36 IM1 A 400      -7.275  20.158  25.432  0.93 19.60    -0.226 NA
HETATM   36  C37 IM1 A 400      -7.977  21.118  24.734  0.93 19.60     0.121 A 
HETATM   37  C38 IM1 A 400      -7.057  21.911  24.054  0.93 19.60     0.121 A 
HETATM   38  N39 IM1 A 400      -5.807  21.422  24.354  0.93 19.60    -0.226 NA
ENDBRANCH  31  34
ENDBRANCH  29  31
ENDBRANCH  20  28
ENDBRANCH  19  20
ENDBRANCH  17  19
ENDBRANCH   9  17
ENDBRANCH   7   9
ENDBRANCH   5   6
ENDBRANCH   1   5
TORSDOF 14
ENDMDL
MODEL 6
REMARK VINA RESULT:      -5.2      2.757      5.401
REMARK  14 active torsions:
REMARK  status: ('A' for Active; 'I' for Inactive)
REMARK    1  A    between atoms: C1_1505  and  O5_1509 
REMARK    2  A    between atoms: O5_1509  and  C6_1510 
REMARK       I    between atoms: C6_1510  and  N8_1512 
REMARK    3  A    between atoms: N8_1512  and  C9_1513 
REMARK    4  A    between atoms: C9_1513  and  C10_1514 
REMARK    5  A    between atoms: C9_1513  and  C17_1521 
REMARK    6  A    between atoms: C10_1514  and  C11_1515 
REMARK    7  A    between atoms: C17_1521  and  C19_1523 
REMARK    8  A    between atoms: C19_1523  and  C20_1524 
REMARK    9  A    between atoms: C20_1524  and  C21_1525 
REMARK   10  A    between atoms: C20_1524  and  C28_1532 
REMARK   11  A    between atoms: C21_1525  and  C22_1526 
REMARK       I    between atoms: C28_1532  and  N30_1534 
REMARK   12  A    between atoms: N30_1534  and  C31_1535 
REMARK   13  A    between atoms: C31_1535  and  C32_1536 
REMARK   14  A    between atoms: C31_1535  and  C35_1538 
ROOT
HETATM    1  C1  IM1 A 400      -8.267  16.161  33.807  0.93 19.60     0.103 C 
HETATM    2  C2  IM1 A 400      -9.318  15.194  33.281  0.93 19.60     0.030 C 
HETATM    3  C3  IM1 A 400      -8.491  17.463  33.050  0.93 19.60     0.030 C 
HETATM    4  C4  IM1 A 400      -8.532  16.414  35.289  0.93 19.60     0.030 C 
ENDROOT
BRANCH   1   5
HETATM    5  O5  IM1 A 400      -7.006  15.635  33.452  0.93 19.60    -0.289 OA
BRANCH   5   6
HETATM    6  C6  IM1 A 400      -6.549  15.076  32.247  0.93 19.60     0.383 C 
HETATM    7  N8  IM1 A 400      -6.668  13.784  31.934  0.93 19.60    -0.211 NA
HETATM    8  O7  IM1 A 400      -6.013  15.846  31.448  0.93 19.60    -0.236 OA
BRANCH   7   9
HETATM    9  C9  IM1 A 400      -6.158  13.245  30.662  0.93 19.60     0.143 C 
BRANCH   9  10
HETATM   10  C10 IM1 A 400      -5.805  11.773  30.903  0.93 19.60     0.053 C 
BRANCH  10  11
HETATM   11  C11 IM1 A 400      -4.334  11.476  30.640  0.93 19.60    -0.020 A 
HETATM   12  C16 IM1 A 400      -3.465  12.495  30.219  0.93 19.60    -0.004 A 
HETATM   13  C15 IM1 A 400      -2.123  12.211  29.990  0.93 19.60    -0.000 A 
HETATM   14  C14 IM1 A 400      -1.649  10.914  30.175  0.93 19.60    -0.000 A 
HETATM   15  C13 IM1 A 400      -2.507   9.900  30.599  0.93 19.60    -0.000 A 
HETATM   16  C12 IM1 A 400      -3.853  10.177  30.830  0.93 19.60    -0.004 A 
ENDBRANCH  10  11
ENDBRANCH   9  10
BRANCH   9  17
HETATM   17  C17 IM1 A 400      -6.961  13.384  29.309  0.93 19.60     0.175 C 
HETATM   18  O18 IM1 A 400      -6.988  12.073  28.729  0.93 19.60    -0.221 OA
BRANCH  17  19
HETATM   19  C19 IM1 A 400      -8.409  13.939  29.407  0.93 19.60     0.045 C 
BRANCH  19  20
HETATM   20  C20 IM1 A 400      -8.663  15.406  29.049  0.93 19.60     0.088 C 
BRANCH  20  21
HETATM   21  C21 IM1 A 400      -7.916  15.680  27.720  0.93 19.60     0.036 C 
BRANCH  21  22
HETATM   22  C22 IM1 A 400      -6.964  16.880  27.740  0.93 19.60    -0.022 A 
HETATM   23  C23 IM1 A 400      -7.443  18.157  27.439  0.93 19.60    -0.004 A 
HETATM   24  C24 IM1 A 400      -6.584  19.252  27.485  0.93 19.60    -0.000 A 
HETATM   25  C25 IM1 A 400      -5.247  19.067  27.824  0.93 19.60    -0.000 A 
HETATM   26  C26 IM1 A 400      -4.764  17.799  28.126  0.93 19.60    -0.000 A 
HETATM   27  C27 IM1 A 400      -5.618  16.706  28.079  0.93 19.60    -0.004 A 
ENDBRANCH  21  22
ENDBRANCH  20  21
BRANCH  20  28
HETATM   28  C28 IM1 A 400     -10.152  15.756  28.942  0.93 19.60     0.252 C 
HETATM   29  N30 IM1 A 400     -11.011  14.855  29.405  0.93 19.60    -0.232 NA
HETATM   30  O29 IM1 A 400     -10.528  16.836  28.476  0.93 19.60    -0.271 OA
BRANCH  29  31
HETATM   31  C31 IM1 A 400     -12.470  15.018  29.406  0.93 19.60     0.164 C 
BRANCH  31  32
HETATM   32  C32 IM1 A 400     -13.184  14.126  28.348  0.93 19.60     0.032 C 
HETATM   33  C34 IM1 A 400     -13.058  14.745  26.965  0.93 19.60     0.003 C 
ENDBRANCH  31  32
BRANCH  31  34
HETATM   34  C35 IM1 A 400     -12.916  14.567  30.799  0.93 19.60     0.162 A 
HETATM   35  N36 IM1 A 400     -13.538  15.405  31.610  0.93 19.60    -0.226 NA
HETATM   36  C37 IM1 A 400     -13.839  14.658  32.730  0.93 19.60     0.121 A 
HETATM   37  C38 IM1 A 400     -13.363  13.366  32.523  0.93 19.60     0.121 A 
HETATM   38  N39 IM1 A 400     -12.783  13.347  31.277  0.93 19.60    -0.226 NA
ENDBRANCH  31  34
ENDBRANCH  29  31
ENDBRANCH  20  28
ENDBRANCH  19  20
ENDBRANCH  17  19
ENDBRANCH   9  17
ENDBRANCH   7   9
ENDBRANCH   5   6
ENDBRANCH   1   5
TORSDOF 14
ENDMDL
MODEL 7
REMARK VINA RESULT:      -5.1      1.609      2.361
REMARK  14 active torsions:
REMARK  status: ('A' for Active; 'I' for Inactive)
REMARK    1  A    between atoms: C1_1505  and  O5_1509 
REMARK    2  A    between atoms: O5_1509  and  C6_1510 
REMARK       I    between atoms: C6_1510  and  N8_1512 
REMARK    3  A    between atoms: N8_1512  and  C9_1513 
REMARK    4  A    between atoms: C9_1513  and  C10_1514 
REMARK    5  A    between atoms: C9_1513  and  C17_1521 
REMARK    6  A    between atoms: C10_1514  and  C11_1515 
REMARK    7  A    between atoms: C17_1521  and  C19_1523 
REMARK    8  A    between atoms: C19_1523  and  C20_1524 
REMARK    9  A    between atoms: C20_1524  and  C21_1525 
REMARK   10  A    between atoms: C20_1524  and  C28_1532 
REMARK   11  A    between atoms: C21_1525  and  C22_1526 
REMARK       I    between atoms: C28_1532  and  N30_1534 
REMARK   12  A    between atoms: N30_1534  and  C31_1535 
REMARK   13  A    between atoms: C31_1535  and  C32_1536 
REMARK   14  A    between atoms: C31_1535  and  C35_1538 
ROOT
HETATM    1  C1  IM1 A 400      -9.183  16.118  33.530  0.93 19.60     0.103 C 
HETATM    2  C2  IM1 A 400     -10.350  16.077  32.554  0.93 19.60     0.030 C 
HETATM    3  C3  IM1 A 400      -8.524  17.475  33.326  0.93 19.60     0.030 C 
HETATM    4  C4  IM1 A 400      -9.732  16.055  34.952  0.93 19.60     0.030 C 
ENDROOT
BRANCH   1   5
HETATM    5  O5  IM1 A 400      -8.280  15.106  33.136  0.93 19.60    -0.289 OA
BRANCH   5   6
HETATM    6  C6  IM1 A 400      -7.211  15.132  32.226  0.93 19.60     0.383 C 
HETATM    7  N8  IM1 A 400      -7.358  15.290  30.908  0.93 19.60    -0.211 NA
HETATM    8  O7  IM1 A 400      -6.079  15.001  32.696  0.93 19.60    -0.236 OA
BRANCH   7   9
HETATM    9  C9  IM1 A 400      -6.204  15.295  29.995  0.93 19.60     0.143 C 
BRANCH   9  10
HETATM   10  C10 IM1 A 400      -6.270  14.000  29.175  0.93 19.60     0.053 C 
BRANCH  10  11
HETATM   11  C11 IM1 A 400      -5.176  13.012  29.560  0.93 19.60    -0.020 A 
HETATM   12  C16 IM1 A 400      -3.860  13.451  29.775  0.93 19.60    -0.004 A 
HETATM   13  C15 IM1 A 400      -2.874  12.539  30.133  0.93 19.60    -0.000 A 
HETATM   14  C14 IM1 A 400      -3.196  11.191  30.272  0.93 19.60    -0.000 A 
HETATM   15  C13 IM1 A 400      -4.503  10.751  30.065  0.93 19.60    -0.000 A 
HETATM   16  C12 IM1 A 400      -5.496  11.659  29.706  0.93 19.60    -0.004 A 
ENDBRANCH  10  11
ENDBRANCH   9  10
BRANCH   9  17
HETATM   17  C17 IM1 A 400      -5.895  16.513  29.038  0.93 19.60     0.175 C 
HETATM   18  O18 IM1 A 400      -4.538  16.891  29.304  0.93 19.60    -0.221 OA
BRANCH  17  19
HETATM   19  C19 IM1 A 400      -6.077  16.271  27.514  0.93 19.60     0.045 C 
BRANCH  19  20
HETATM   20  C20 IM1 A 400      -4.832  16.190  26.625  0.93 19.60     0.088 C 
BRANCH  20  21
HETATM   21  C21 IM1 A 400      -5.100  15.083  25.576  0.93 19.60     0.036 C 
BRANCH  21  22
HETATM   22  C22 IM1 A 400      -4.501  13.712  25.904  0.93 19.60    -0.022 A 
HETATM   23  C23 IM1 A 400      -5.311  12.573  25.886  0.93 19.60    -0.004 A 
HETATM   24  C24 IM1 A 400      -4.760  11.323  26.156  0.93 19.60    -0.000 A 
HETATM   25  C25 IM1 A 400      -3.404  11.214  26.449  0.93 19.60    -0.000 A 
HETATM   26  C26 IM1 A 400      -2.592  12.342  26.466  0.93 19.60    -0.000 A 
HETATM   27  C27 IM1 A 400      -3.139  13.590  26.200  0.93 19.60    -0.004 A 
ENDBRANCH  21  22
ENDBRANCH  20  21
BRANCH  20  28
HETATM   28  C28 IM1 A 400      -4.473  17.524  25.959  0.93 19.60     0.252 C 
HETATM   29  N30 IM1 A 400      -4.956  17.730  24.740  0.93 19.60    -0.232 NA
HETATM   30  O29 IM1 A 400      -3.793  18.373  26.544  0.93 19.60    -0.271 OA
BRANCH  29  31
HETATM   31  C31 IM1 A 400      -4.737  18.949  23.952  0.93 19.60     0.164 C 
BRANCH  31  32
HETATM   32  C32 IM1 A 400      -4.497  18.664  22.440  0.93 19.60     0.032 C 
HETATM   33  C34 IM1 A 400      -3.045  18.282  22.200  0.93 19.60     0.003 C 
ENDBRANCH  31  32
BRANCH  31  34
HETATM   34  C35 IM1 A 400      -6.034  19.749  24.092  0.93 19.60     0.162 A 
HETATM   35  N36 IM1 A 400      -7.208  19.148  24.004  0.93 19.60    -0.226 NA
HETATM   36  C37 IM1 A 400      -8.135  20.143  24.233  0.93 19.60     0.121 A 
HETATM   37  C38 IM1 A 400      -7.443  21.330  24.454  0.93 19.60     0.121 A 
HETATM   38  N39 IM1 A 400      -6.103  21.036  24.359  0.93 19.60    -0.226 NA
ENDBRANCH  31  34
ENDBRANCH  29  31
ENDBRANCH  20  28
ENDBRANCH  19  20
ENDBRANCH  17  19
ENDBRANCH   9  17
ENDBRANCH   7   9
ENDBRANCH   5   6
ENDBRANCH   1   5
TORSDOF 14
ENDMDL
MODEL 8
REMARK VINA RESULT:      -5.1      2.319      2.947
REMARK  14 active torsions:
REMARK  status: ('A' for Active; 'I' for Inactive)
REMARK    1  A    between atoms: C1_1505  and  O5_1509 
REMARK    2  A    between atoms: O5_1509  and  C6_1510 
REMARK       I    between atoms: C6_1510  and  N8_1512 
REMARK    3  A    between atoms: N8_1512  and  C9_1513 
REMARK    4  A    between atoms: C9_1513  and  C10_1514 
REMARK    5  A    between atoms: C9_1513  and  C17_1521 
REMARK    6  A    between atoms: C10_1514  and  C11_1515 
REMARK    7  A    between atoms: C17_1521  and  C19_1523 
REMARK    8  A    between atoms: C19_1523  and  C20_1524 
REMARK    9  A    between atoms: C20_1524  and  C21_1525 
REMARK   10  A    between atoms: C20_1524  and  C28_1532 
REMARK   11  A    between atoms: C21_1525  and  C22_1526 
REMARK       I    between atoms: C28_1532  and  N30_1534 
REMARK   12  A    between atoms: N30_1534  and  C31_1535 
REMARK   13  A    between atoms: C31_1535  and  C32_1536 
REMARK   14  A    between atoms: C31_1535  and  C35_1538 
ROOT
HETATM    1  C1  IM1 A 400      -8.276  16.157  33.736  0.93 19.60     0.103 C 
HETATM    2  C2  IM1 A 400      -9.363  15.132  33.448  0.93 19.60     0.030 C 
HETATM    3  C3  IM1 A 400      -8.500  17.285  32.738  0.93 19.60     0.030 C 
HETATM    4  C4  IM1 A 400      -8.482  16.709  35.143  0.93 19.60     0.030 C 
ENDROOT
BRANCH   1   5
HETATM    5  O5  IM1 A 400      -7.038  15.537  33.456  0.93 19.60    -0.289 OA
BRANCH   5   6
HETATM    6  C6  IM1 A 400      -6.373  15.322  32.237  0.93 19.60     0.383 C 
HETATM    7  N8  IM1 A 400      -6.849  14.555  31.254  0.93 19.60    -0.211 NA
HETATM    8  O7  IM1 A 400      -5.288  15.888  32.091  0.93 19.60    -0.236 OA
BRANCH   7   9
HETATM    9  C9  IM1 A 400      -6.104  14.350  30.001  0.93 19.60     0.143 C 
BRANCH   9  10
HETATM   10  C10 IM1 A 400      -6.091  12.842  29.723  0.93 19.60     0.053 C 
BRANCH  10  11
HETATM   11  C11 IM1 A 400      -4.729  12.213  29.988  0.93 19.60    -0.020 A 
HETATM   12  C16 IM1 A 400      -4.614  10.834  30.226  0.93 19.60    -0.004 A 
HETATM   13  C15 IM1 A 400      -3.363  10.272  30.459  0.93 19.60    -0.000 A 
HETATM   14  C14 IM1 A 400      -2.230  11.084  30.460  0.93 19.60    -0.000 A 
HETATM   15  C13 IM1 A 400      -2.339  12.453  30.219  0.93 19.60    -0.000 A 
HETATM   16  C12 IM1 A 400      -3.589  13.022  29.985  0.93 19.60    -0.004 A 
ENDBRANCH  10  11
ENDBRANCH   9  10
BRANCH   9  17
HETATM   17  C17 IM1 A 400      -6.460  15.131  28.676  0.93 19.60     0.175 C 
HETATM   18  O18 IM1 A 400      -7.037  16.376  29.092  0.93 19.60    -0.221 OA
BRANCH  17  19
HETATM   19  C19 IM1 A 400      -5.292  15.405  27.688  0.93 19.60     0.045 C 
BRANCH  19  20
HETATM   20  C20 IM1 A 400      -5.499  15.112  26.199  0.93 19.60     0.088 C 
BRANCH  20  21
HETATM   21  C21 IM1 A 400      -5.754  13.589  26.073  0.93 19.60     0.036 C 
BRANCH  21  22
HETATM   22  C22 IM1 A 400      -4.532  12.698  26.317  0.93 19.60    -0.022 A 
HETATM   23  C23 IM1 A 400      -4.693  11.319  26.472  0.93 19.60    -0.004 A 
HETATM   24  C24 IM1 A 400      -3.580  10.506  26.665  0.93 19.60    -0.000 A 
HETATM   25  C25 IM1 A 400      -2.310  11.071  26.709  0.93 19.60    -0.000 A 
HETATM   26  C26 IM1 A 400      -2.142  12.443  26.553  0.93 19.60    -0.000 A 
HETATM   27  C27 IM1 A 400      -3.251  13.257  26.363  0.93 19.60    -0.004 A 
ENDBRANCH  21  22
ENDBRANCH  20  21
BRANCH  20  28
HETATM   28  C28 IM1 A 400      -6.634  15.929  25.571  0.93 19.60     0.252 C 
HETATM   29  N30 IM1 A 400      -7.719  15.257  25.204  0.93 19.60    -0.232 NA
HETATM   30  O29 IM1 A 400      -6.551  17.154  25.443  0.93 19.60    -0.271 OA
BRANCH  29  31
HETATM   31  C31 IM1 A 400      -8.912  15.866  24.604  0.93 19.60     0.164 C 
BRANCH  31  32
HETATM   32  C32 IM1 A 400      -9.344  15.181  23.273  0.93 19.60     0.032 C 
HETATM   33  C34 IM1 A 400      -8.413  15.592  22.144  0.93 19.60     0.003 C 
ENDBRANCH  31  32
BRANCH  31  34
HETATM   34  C35 IM1 A 400     -10.024  15.658  25.636  0.93 19.60     0.162 A 
HETATM   35  N36 IM1 A 400     -10.863  14.643  25.525  0.93 19.60    -0.226 NA
HETATM   36  C37 IM1 A 400     -11.675  14.730  26.637  0.93 19.60     0.121 A 
HETATM   37  C38 IM1 A 400     -11.265  15.833  27.381  0.93 19.60     0.121 A 
HETATM   38  N39 IM1 A 400     -10.205  16.397  26.710  0.93 19.60    -0.226 NA
ENDBRANCH  31  34
ENDBRANCH  29  31
ENDBRANCH  20  28
ENDBRANCH  19  20
ENDBRANCH  17  19
ENDBRANCH   9  17
ENDBRANCH   7   9
ENDBRANCH   5   6
ENDBRANCH   1   5
TORSDOF 14
ENDMDL
MODEL 9
REMARK VINA RESULT:      -5.1      2.408      5.572
REMARK  14 active torsions:
REMARK  status: ('A' for Active; 'I' for Inactive)
REMARK    1  A    between atoms: C1_1505  and  O5_1509 
REMARK    2  A    between atoms: O5_1509  and  C6_1510 
REMARK       I    between atoms: C6_1510  and  N8_1512 
REMARK    3  A    between atoms: N8_1512  and  C9_1513 
REMARK    4  A    between atoms: C9_1513  and  C10_1514 
REMARK    5  A    between atoms: C9_1513  and  C17_1521 
REMARK    6  A    between atoms: C10_1514  and  C11_1515 
REMARK    7  A    between atoms: C17_1521  and  C19_1523 
REMARK    8  A    between atoms: C19_1523  and  C20_1524 
REMARK    9  A    between atoms: C20_1524  and  C21_1525 
REMARK   10  A    between atoms: C20_1524  and  C28_1532 
REMARK   11  A    between atoms: C21_1525  and  C22_1526 
REMARK       I    between atoms: C28_1532  and  N30_1534 
REMARK   12  A    between atoms: N30_1534  and  C31_1535 
REMARK   13  A    between atoms: C31_1535  and  C32_1536 
REMARK   14  A    between atoms: C31_1535  and  C35_1538 
ROOT
HETATM    1  C1  IM1 A 400     -11.067  19.093  25.766  0.93 19.60     0.103 C 
HETATM    2  C2  IM1 A 400     -12.235  19.046  26.741  0.93 19.60     0.030 C 
HETATM    3  C3  IM1 A 400     -11.684  18.982  24.379  0.93 19.60     0.030 C 
HETATM    4  C4  IM1 A 400     -10.386  20.453  25.884  0.93 19.60     0.030 C 
ENDROOT
BRANCH   1   5
HETATM    5  O5  IM1 A 400     -10.279  17.947  26.010  0.93 19.60    -0.289 OA
BRANCH   5   6
HETATM    6  C6  IM1 A 400      -9.619  17.515  27.173  0.93 19.60     0.383 C 
HETATM    7  N8  IM1 A 400     -10.056  16.523  27.953  0.93 19.60    -0.211 NA
HETATM    8  O7  IM1 A 400      -8.577  18.102  27.469  0.93 19.60    -0.236 OA
BRANCH   7   9
HETATM    9  C9  IM1 A 400      -9.335  16.120  29.170  0.93 19.60     0.143 C 
BRANCH   9  10
HETATM   10  C10 IM1 A 400     -10.350  16.119  30.319  0.93 19.60     0.053 C 
BRANCH  10  11
HETATM   11  C11 IM1 A 400      -9.682  16.195  31.686  0.93 19.60    -0.020 A 
HETATM   12  C16 IM1 A 400      -8.894  17.302  32.034  0.93 19.60    -0.004 A 
HETATM   13  C15 IM1 A 400      -8.296  17.363  33.289  0.93 19.60    -0.000 A 
HETATM   14  C14 IM1 A 400      -8.480  16.318  34.193  0.93 19.60    -0.000 A 
HETATM   15  C13 IM1 A 400      -9.268  15.219  33.854  0.93 19.60    -0.000 A 
HETATM   16  C12 IM1 A 400      -9.869  15.152  32.599  0.93 19.60    -0.004 A 
ENDBRANCH  10  11
ENDBRANCH   9  10
BRANCH   9  17
HETATM   17  C17 IM1 A 400      -8.463  14.805  29.232  0.93 19.60     0.175 C 
HETATM   18  O18 IM1 A 400      -8.977  13.939  28.211  0.93 19.60    -0.221 OA
BRANCH  17  19
HETATM   19  C19 IM1 A 400      -6.929  14.971  29.047  0.93 19.60     0.045 C 
BRANCH  19  20
HETATM   20  C20 IM1 A 400      -6.236  16.184  29.676  0.93 19.60     0.088 C 
BRANCH  20  21
HETATM   21  C21 IM1 A 400      -5.592  15.698  30.998  0.93 19.60     0.036 C 
BRANCH  21  22
HETATM   22  C22 IM1 A 400      -5.507  14.177  31.164  0.93 19.60    -0.022 A 
HETATM   23  C23 IM1 A 400      -6.393  13.517  32.019  0.93 19.60    -0.004 A 
HETATM   24  C24 IM1 A 400      -6.334  12.132  32.148  0.93 19.60    -0.000 A 
HETATM   25  C25 IM1 A 400      -5.386  11.411  31.429  0.93 19.60    -0.000 A 
HETATM   26  C26 IM1 A 400      -4.503  12.061  30.574  0.93 19.60    -0.000 A 
HETATM   27  C27 IM1 A 400      -4.558  13.442  30.445  0.93 19.60    -0.004 A 
ENDBRANCH  21  22
ENDBRANCH  20  21
BRANCH  20  28
HETATM   28  C28 IM1 A 400      -5.203  16.841  28.753  0.93 19.60     0.252 C 
HETATM   29  N30 IM1 A 400      -5.455  16.796  27.450  0.93 19.60    -0.232 NA
HETATM   30  O29 IM1 A 400      -4.204  17.408  29.205  0.93 19.60    -0.271 OA
BRANCH  29  31
HETATM   31  C31 IM1 A 400      -4.596  17.383  26.414  0.93 19.60     0.164 C 
BRANCH  31  32
HETATM   32  C32 IM1 A 400      -4.181  16.362  25.313  0.93 19.60     0.032 C 
HETATM   33  C34 IM1 A 400      -4.917  15.046  25.512  0.93 19.60     0.003 C 
ENDBRANCH  31  32
BRANCH  31  34
HETATM   34  C35 IM1 A 400      -5.450  18.474  25.764  0.93 19.60     0.162 A 
HETATM   35  N36 IM1 A 400      -5.666  19.620  26.386  0.93 19.60    -0.226 NA
HETATM   36  C37 IM1 A 400      -6.410  20.371  25.501  0.93 19.60     0.121 A 
HETATM   37  C38 IM1 A 400      -6.608  19.607  24.353  0.93 19.60     0.121 A 
HETATM   38  N39 IM1 A 400      -5.976  18.403  24.559  0.93 19.60    -0.226 NA
ENDBRANCH  31  34
ENDBRANCH  29  31
ENDBRANCH  20  28
ENDBRANCH  19  20
ENDBRANCH  17  19
ENDBRANCH   9  17
ENDBRANCH   7   9
ENDBRANCH   5   6
ENDBRANCH   1   5
TORSDOF 14
ENDMDL
